Version 4
SHEET 1 880 1124
WIRE -544 -192 -576 -192
WIRE -96 -192 -544 -192
WIRE -96 -144 -96 -192
WIRE -320 -64 -368 -64
WIRE -256 -64 -320 -64
WIRE -160 -64 -192 -64
WIRE -144 -64 -160 -64
WIRE -576 16 -576 -192
WIRE -224 80 -224 -48
WIRE -160 80 -224 80
WIRE -96 80 -96 -48
WIRE -96 80 -160 80
WIRE -16 80 -96 80
WIRE 176 80 16 80
WIRE 304 80 256 80
WIRE 448 80 384 80
WIRE 544 80 448 80
WIRE 576 80 544 80
WIRE 448 144 448 80
WIRE 0 176 0 96
WIRE 48 176 0 176
WIRE 176 176 48 176
WIRE 576 176 576 80
WIRE -96 192 -96 80
WIRE 448 240 448 208
WIRE -576 368 -576 96
WIRE -96 368 -96 256
WIRE -96 368 -576 368
WIRE 448 368 448 320
WIRE 448 368 -96 368
WIRE 576 368 576 256
WIRE 576 368 448 368
WIRE -576 416 -576 368
WIRE 240 496 144 496
WIRE 288 496 240 496
WIRE -176 560 -208 560
WIRE -16 560 -176 560
WIRE 288 656 288 496
WIRE 336 656 288 656
WIRE 512 656 432 656
WIRE 544 656 512 656
WIRE -16 688 -16 560
WIRE 96 688 -16 688
WIRE 272 704 160 704
WIRE 336 704 272 704
WIRE 32 720 -16 720
WIRE 96 720 32 720
WIRE -16 784 -16 720
WIRE -16 784 -144 784
FLAG -576 416 0
FLAG 544 80 out
FLAG -544 -192 in
FLAG 48 176 isw
FLAG 512 656 gate
FLAG 32 720 ip
FLAG 272 704 comp
FLAG 240 496 clk
FLAG -320 -64 gate
FLAG -176 560 isw
FLAG -160 -64 G
FLAG -160 80 S
SYMBOL ind 288 96 R270
WINDOW 0 32 56 VTop 2
WINDOW 3 5 56 VBottom 2
SYMATTR InstName L1
SYMATTR Value 10µ
SYMBOL cap 432 144 R0
SYMATTR InstName C1
SYMATTR Value 10µ
SYMBOL res 560 160 R0
SYMATTR InstName R1
SYMATTR Value 5
SYMBOL voltage -576 0 R0
SYMATTR InstName V1
SYMATTR Value 10
SYMBOL res 272 64 R90
WINDOW 0 0 56 VBottom 2
WINDOW 3 32 56 VTop 2
SYMATTR InstName R2
SYMATTR Value 50m
SYMBOL res 432 224 R0
SYMATTR InstName R3
SYMATTR Value 200m
SYMBOL Control\\isense 0 80 R0
WINDOW 0 0 -28 Bottom 2
SYMATTR InstName U4
SYMBOL Control\\comp 128 704 R0
WINDOW 3 -7 27 Left 2
WINDOW 123 -2 55 Left 2
SYMATTR Value Vhigh=1
SYMATTR Value2 Vlow=0
SYMATTR InstName U3
SYMBOL Control\\clk 112 496 R0
WINDOW 38 -72 19 Bottom 2
WINDOW 3 3 74 Bottom 2
WINDOW 123 7 107 Bottom 2
WINDOW 39 2 135 Bottom 2
SYMATTR Value tdelay=0 Vhigh=1
SYMATTR Value2 SR=1e8 ton=1u
SYMATTR InstName U5
SYMBOL Digital\\srflop 384 608 R0
SYMATTR InstName A1
SYMBOL Control\\constant -176 784 R0
WINDOW 3 -9 64 Bottom 2
SYMATTR Value K=2.3
SYMATTR InstName U6
SYMBOL nmos -144 -144 R0
SYMATTR InstName M1
SYMATTR Value IRF530
SYMBOL Control\\idiode -80 256 R180
WINDOW 3 24 -28 Left 2
WINDOW 123 24 -56 Left 2
SYMATTR InstName U1
SYMBOL Control\\driver -224 -64 R0
WINDOW 3 39 45 Bottom 2
SYMATTR Value k=15
SYMATTR InstName U8
TEXT 72 -56 Left 2 !.tran 0 250u 0 0.1u
TEXT 80 -96 Left 2 !.options reltol=1m
